[Format]      =  4.0
[Frequency]   =  0
[Precision]   =  1e-008
[MinAngle]    =  30
[Depth]       =  1000
[LengthUnits] =  meters
[ProblemType] =  planar
[Coordinates] =  cartesian
[ACSolver]    =  0
[Comment]     =  "Add comments here."
[PointProps]   = 0
[BdryProps]   = 1
  <BeginBdry>
    <BdryName> = "boundary"
    <BdryType> = 4
    <A_0> = 0
    <A_1> = 0
    <A_2> = 0
    <Phi> = 0
    <c0> = 0
    <c0i> = 0
    <c1> = 0
    <c1i> = 0
    <Mu_ssd> = 0
    <Sigma_ssd> = 0
  <EndBdry>
[BlockProps]  = 3
  <BeginBlock>
    <BlockName> = "Air"
    <Mu_x> = 1
    <Mu_y> = 1
    <H_c> = 0
    <H_cAngle> = 0
    <J_re> = 0
    <J_im> = 0
    <Sigma> = 0
    <d_lam> = 0
    <Phi_h> = 0
    <Phi_hx> = 0
    <Phi_hy> = 0
    <LamType> = 0
    <LamFill> = 1
    <NStrands> = 0
    <WireD> = 0
    <BHPoints> = 0
  <EndBlock>
  <BeginBlock>
    <BlockName> = "copper_coil"
    <Mu_x> = 1
    <Mu_y> = 1
    <H_c> = 0
    <H_cAngle> = 0
    <J_re> = 0
    <J_im> = 0
    <Sigma> = 59
    <d_lam> = 0
    <Phi_h> = 0
    <Phi_hx> = 0
    <Phi_hy> = 0
    <LamType> = 0
    <LamFill> = 1
    <NStrands> = 0
    <WireD> = 0
    <BHPoints> = 0
  <EndBlock>
  <BeginBlock>
    <BlockName> = "LORD MRF 132-DG - mu=6"
    <Mu_x> = 6
    <Mu_y> = 6
    <H_c> = 0
    <H_cAngle> = 0
    <J_re> = 0
    <J_im> = 0
    <Sigma> = 0
    <d_lam> = 0
    <Phi_h> = 0
    <Phi_hx> = 0
    <Phi_hy> = 0
    <LamType> = 0
    <LamFill> = 1
    <NStrands> = 0
    <WireD> = 0
    <BHPoints> = 19
      0	0
      0.10315186246418299	12098.2986767486
      0.16045845272206299	19659.7353497164
      0.229226361031519	30245.7466918715
      0.30945558739255002	43856.3327032136
      0.37249283667621802	57466.918714555803
      0.424068767908309	66540.642722117205
      0.48137535816618898	80151.2287334594
      0.555873925501433	95274.102079395103
      0.60744985673352403	116446.124763705
      0.68194842406876799	139130.43478260899
      0.722063037249284	154253.30812854401
      0.78510028653295105	178449.905482042
      0.83094555873925502	198109.64083175801
      0.87679083094555899	222306.238185255
      0.916905444126075	243478.26086956501
      0.95128939828080195	263137.99621928198
      0.97421203438395398	279773.156899811
      0.99713467048710602	290359.16824196599
  <EndBlock>
[CircuitProps]  = 1
  <BeginCircuit>
    <CircuitName> = "coil_circuit"
    <TotalAmps_re> = 22.280000000000001
    <TotalAmps_im> = 0
    <CircuitType> = 1
  <EndCircuit>
[NumPoints] = 16
0.036212102498755144	0.00094394875062242187	0	0
0.036212102498755144	0.035268153748132719	0	0
0.036212102498755144	-0.035268153748132719	0	0
0.036212102498755144	-0.00094394875062242187	0	0
0	0.072424204997510289	0	0
0	-0.072424204997510289	0	0
0.012699999999999999	0.0015874999999999999	0	0
0	0.0015874999999999999	0	0
0	-0.0015874999999999999	0	0
0.012699999999999999	-0.0015874999999999999	0	0
-0.012699999999999999	0.0015874999999999999	0	0
-0.012699999999999999	-0.0015874999999999999	0	0
-0.036212102498755144	0.035268153748132719	0	0
-0.036212102498755144	0.00094394875062242187	0	0
-0.036212102498755144	-0.00094394875062242187	0	0
-0.036212102498755144	-0.035268153748132719	0	0
[NumSegments] = 6
6	7	-1	0	0	0
8	9	-1	0	0	0
6	9	-1	0	0	0
10	7	-1	0	0	0
8	11	-1	0	0	0
10	11	-1	0	0	0
[NumArcSegments] = 10
0	1	180	1	0	0	0
1	0	180	1	0	0	0
2	3	180	1	0	0	0
3	2	180	1	0	0	0
5	4	180	0.77000000000000002	1	0	0
12	13	180	1	0	0	0
13	12	180	1	0	0	0
14	15	180	1	0	0	0
15	14	180	1	0	0	0
4	5	180	0.77000000000000002	1	0	0
[NumHoles] = 0
[NumBlockLabels] = 6
0.001	-0.036212102498755144	1	-1	0	0	1	1	0
0.0063499999999999997	0	3	-1	0	0	3	1	0
0.036212102498755144	0.018106051249377572	2	-1	1	0	1	400	0
0.036212102498755144	-0.018106051249377572	2	-1	1	0	1	400	0
-0.036212102498755144	0.018106051249377572	2	-1	1	180	1	-400	0
-0.036212102498755144	-0.018106051249377572	2	-1	1	180	1	-400	0
